35
XYZ file generated by Avogadro.
C     -3.22593   -0.64023   -0.03308
C     -1.81671   -0.54699   -0.01116
C     -3.80904   -1.91394   -0.02183
C     -3.03860   -3.07054   -0.00550
C     -1.64985   -2.97478   -0.01248
C     -1.05219   -1.72035   -0.01601
H     -4.89268   -1.98827   -0.05756
H     -3.52243   -4.04325   -0.00192
H     -1.03440   -3.86966   -0.00500
H      0.03122   -1.63926    0.01541
C     -4.10671    0.54661   -0.10603
C     -5.21605    0.66737    0.73960
C     -6.06411    1.76364    0.67275
C     -5.83593    2.78777   -0.25881
C     -4.73332    2.66562   -1.11998
C     -3.89027    1.56896   -1.03948
C     -1.10224    0.74844    0.06859
C     -1.45474    1.71197    1.02477
C     -0.75849    2.90452    1.12387
C      0.31393    3.15771    0.25637
C      0.68200    2.20355   -0.69969
C     -0.02269    1.01173   -0.78425
H     -5.40854   -0.10634    1.47893
H     -6.48368    3.63779   -0.31159
H      0.85107    4.08055    0.32522
H     -4.54339    3.44068   -1.85878
H     -3.05059    1.49772   -1.72521
H     -2.28352    1.51796    1.69741
H     -1.03536    3.64204    1.87009
C      1.78965    2.46107   -1.51790
H      0.25448    0.27838   -1.53582
N      3.27200    2.74589   -2.30459
N     -6.89982    1.82859    1.33778
H     -6.91728    0.99987    1.94919
H     -6.81513    2.67838    1.91362
